
TEST1


TEST2

/*---------------------------------------------------------------------------*\
  =========                 |
  \\      /  F ield         | OpenFOAM: The Open Source CFD Toolbox
   \\    /   O peration     | Website:  https://openfoam.org
    \\  /    A nd           | Version:  8
     \\/     M anipulation  |
\*---------------------------------------------------------------------------*/
Build  : 8-1c9b5879390b
Exec   : /home/omagen/OpenFOAM/omagen-8/platforms/linux64GccDPInt32Opt/bin/CNTFoam
Date   : Aug 09 2023
Time   : 18:27:41
Host   : "OMComputer"
PID    : 25087
I/O    : uncollated
Case   : /home/omagen/Proj/OF_Sims/CNT_FAST_RANS_cylinder
nProcs : 1
sigFpe : Enabling floating point exception trapping (FOAM_SIGFPE).
fileModificationChecking : Monitoring run-time modified files using timeStampMaster (fileModificationSkew 10)
allowSystemOperations : Allowing user-supplied system call operations

// * * * * * * * * * * * * * * * * * * * * * * * * * * * * * * * * * * * * * //
Create time

--> FOAM Warning : 
    From function void Foam::Time::setControls()
    in file db/Time/Time.C at line 205
    Increasing the timePrecision from 6 to 17 to support the formatting of the current time directory 10.0000365795

Create mesh for time = 10.0000365795


PIMPLE: No convergence criteria found


PIMPLE: Operating solver in steady-state mode with 1 outer corrector
PIMPLE: Operating solver in SIMPLE mode


Reading thermophysical properties

Selecting thermodynamics package 
{
    type            heRhoThermo;
    mixture         pureMixture;
    transport       const;
    thermo          hConst;
    equationOfState PengRobinsonGas;
    specie          specie;
    energy          sensibleInternalEnergy;
}

Reading field U

Reading field N

Reading field M

Reading field I

Reading/calculating face flux field phi

Creating turbulence model

Selecting turbulence model type RAS
Selecting RAS turbulence model kEpsilon
RAS
{
    model           kEpsilon;
    turbulence      on;
    printCoeffs     on;
    Cmu             0.09;
    C1              1.44;
    C2              1.92;
    C3              0;
    sigmak          1;
    sigmaEps        1.3;
}

Creating thermophysical transport model

Selecting thermophysical transport type RAS
Selecting default RAS thermophysical transport model eddyDiffusivity
Creating field dpdt

Creating field kinetic energy K

No MRF models present

Creating finite volume options from "system/fvOptions"

Selecting finite volume options model type limitTemperature
    Source: limitT
    - selecting all cells
    - selected 6800 cell(s) with volume 39.6077
Courant Number mean: 0.091341 max: 0.29821

Starting time loop

Courant Number mean: 0.091341 max: 0.29821
deltaT = 0.000100038
Time = 10.000136617379999


starting I
1
crit
1
mass
1
eta
1#0  Foam::error::printStack(Foam::Ostream&) at ??:?
#1  Foam::sigFpe::sigHandler(int) at ??:?
#2  ? in "/lib/x86_64-linux-gnu/libc.so.6"
#3  ? in "/lib/x86_64-linux-gnu/libm.so.6"
#4  powf64 in "/lib/x86_64-linux-gnu/libm.so.6"
#5  Foam::pow(Foam::Field<double>&, Foam::UList<double> const&, double const&) at ??:?
#6  Foam::tmp<Foam::GeometricField<double, Foam::fvPatchField, Foam::volMesh> > Foam::pow<Foam::fvPatchField, Foam::volMesh>(Foam::tmp<Foam::GeometricField<double, Foam::fvPatchField, Foam::volMesh> > const&, Foam::dimensioned<double> const&) in "/home/omagen/OpenFOAM/omagen-8/platforms/linux64GccDPInt32Opt/bin/CNTFoam"
#7  ? in "/home/omagen/OpenFOAM/omagen-8/platforms/linux64GccDPInt32Opt/bin/CNTFoam"
#8  ? in "/home/omagen/OpenFOAM/omagen-8/platforms/linux64GccDPInt32Opt/bin/CNTFoam"
#9  __libc_start_main in "/lib/x86_64-linux-gnu/libc.so.6"
#10  ? in "/home/omagen/OpenFOAM/omagen-8/platforms/linux64GccDPInt32Opt/bin/CNTFoam"
